/*--------------------------------*- C++ -*----------------------------------*\
  =========                 |
  \\      /  F ield         | OpenFOAM: The Open Source CFD Toolbox
   \\    /   O peration     | Website:  https://openfoam.org
    \\  /    A nd           | Version:  8
     \\/     M anipulation  |
\*---------------------------------------------------------------------------*/
FoamFile
{
    version     2.0;
    format      ascii;
    class       volScalarField;
    location    "0";
    object      alphat;
}
// * * * * * * * * * * * * * * * * * * * * * * * * * * * * * * * * * * * * * //

dimensions      [1 -1 -1 0 0 0 0];

internalField   uniform 0;

boundaryField
{
    crac01_inlet
    {
        type            calculated;
        value           uniform 0;
    }
    crac01_outlet
    {
        type            calculated;
        value           uniform 0;
    }
    crac02_inlet
    {
        type            calculated;
        value           uniform 0;
    }
    crac02_outlet
    {
        type            calculated;
        value           uniform 0;
    }
    crac03_inlet
    {
        type            calculated;
        value           uniform 0;
    }
    crac03_outlet
    {
        type            calculated;
        value           uniform 0;
    }
    crac04_inlet
    {
        type            calculated;
        value           uniform 0;
    }
    crac04_outlet
    {
        type            calculated;
        value           uniform 0;
    }
    rack01_inlet
    {
        type            calculated;
        value           uniform 0;
    }
    rack01_outlet
    {
        type            calculated;
        value           uniform 0;
    }
    rack02_inlet
    {
        type            calculated;
        value           uniform 0;
    }
    rack02_outlet
    {
        type            calculated;
        value           uniform 0;
    }
    rack03_inlet
    {
        type            calculated;
        value           uniform 0;
    }
    rack03_outlet
    {
        type            calculated;
        value           uniform 0;
    }
    rack04_inlet
    {
        type            calculated;
        value           uniform 0;
    }
    rack04_outlet
    {
        type            calculated;
        value           uniform 0;
    }
    rack05_inlet
    {
        type            calculated;
        value           uniform 0;
    }
    rack05_outlet
    {
        type            calculated;
        value           uniform 0;
    }
    rack06_inlet
    {
        type            calculated;
        value           uniform 0;
    }
    rack06_outlet
    {
        type            calculated;
        value           uniform 0;
    }
    rack07_inlet
    {
        type            calculated;
        value           uniform 0;
    }
    rack07_outlet
    {
        type            calculated;
        value           uniform 0;
    }
    rack08_inlet
    {
        type            calculated;
        value           uniform 0;
    }
    rack08_outlet
    {
        type            calculated;
        value           uniform 0;
    }
    rack09_inlet
    {
        type            calculated;
        value           uniform 0;
    }
    rack09_outlet
    {
        type            calculated;
        value           uniform 0;
    }
    rack10_inlet
    {
        type            calculated;
        value           uniform 0;
    }
    rack10_outlet
    {
        type            calculated;
        value           uniform 0;
    }
    walls
    {
        type            compressible::alphatJayatillekeWallFunction;
        Prt             0.85;
        value           uniform 0;
    }
    hole
    {
        type            calculated;
        value           uniform 0;
    }
}


// ************************************************************************* //
