/*--------------------------------*- C++ -*----------------------------------*\
| =========                 |                                                 |
| \\      /  F ield         | OpenFOAM: The Open Source CFD Toolbox           |
|  \\    /   O peration     | Version:  v1806                                 |
|   \\  /    A nd           | Web:      www.OpenFOAM.com                      |
|    \\/     M anipulation  |                                                 |
\*---------------------------------------------------------------------------*/
FoamFile
{
    version     2.0;
    format      ascii;
    class       dictionary;
    location    "system";
    object      controlDict;
}
// * * * * * * * * * * * * * * * * * * * * * * * * * * * * * * * * * * * * * //

application     buoyantSimpleFoam;

startFrom       startTime;  //latestTime;//startTime;

startTime       0;

stopAt          endTime;

endTime         1000;

deltaT          1;

writeControl    timeStep;

writeInterval   1000;

purgeWrite      0;

writeFormat     ascii;

writePrecision  7; // increased from 6 to reconstruct mesh

writeCompression off;

timeFormat      general;

timePrecision   6;

runTimeModifiable true;


functions
{
    fieldMinMax1
    {
        type        fieldMinMax;
        libs        ("libfieldFunctionObjects.so");
        writeToFile no;
        log         yes;
        mode        magnitude;
        fields      (U T p_rgh);
    }
}

