
FoamFile
{
 class dictionary;
 format ascii;
 object decomposeParDict;
 version 2.0;
}

numberOfSubdomains  8;

method          scotch;
