/*--------------------------------*- C++ -*----------------------------------*\
| =========                 |                                                 |
| \\      /  F ield         | OpenFOAM: The Open Source CFD Toolbox           |
|  \\    /   O peration     | Version:  v1806                                 |
|   \\  /    A nd           | Web:      www.OpenFOAM.com                      |
|    \\/     M anipulation  |                                                 |
\*---------------------------------------------------------------------------*/
FoamFile
{
    version     2.0;
    format      ascii;
    class       dictionary;
    location    "system";
    object      fvSchemes;
}
// * * * * * * * * * * * * * * * * * * * * * * * * * * * * * * * * * * * * * //

ddtSchemes
{
    default         steadyState;
}

gradSchemes
{
    
    default         Gauss linear;
//    default         cellMDLimited Gauss linear 0.5;
//    default       cellMDLimited leastSquares 0.5;
}


divSchemes
{
    default         none;
    div((nuEff*dev2(T(grad(U))))) Gauss linear;

    div(phi,U) Gauss MUSCLV;
                        
    div(phi,T) Gauss limitedLinear 1;
    
    turbulence Gauss upwind;

    div(phi,k) $turbulence;
    div(phi,omega) $turbulence;
    div(phi,epsilon) $turbulence;

}


laplacianSchemes
{
    default          Gauss linear corrected;
}

interpolationSchemes
{
    default         linear;
}

snGradSchemes
{
    default           corrected;
}

wallDist 
{ 
    method exactDistance; 
} 

// ************************************************************************* //
