
FoamFile
{
 class dictionary;
 format ascii;
 object decomposeParDict;
 version 2.0;
}

numberOfSubdomains 88;

method              metis;

coeffs
{
    n           (4 2 2);
}